REMARK  8 active torsions:
REMARK  status: ('A' for Active; 'I' for Inactive)
REMARK    1  A    between atoms: C1_2  and  C6_3 
REMARK    2  A    between atoms: C1_2  and  C2_10 
REMARK    3  A    between atoms: C6_3  and  C7_4 
REMARK    4  A    between atoms: C2_10  and  C3_12 
REMARK       I    between atoms: C3_12  and  N1_14 
REMARK    5  A    between atoms: N1_14  and  C4_15 
REMARK    6  A    between atoms: C4_15  and  C13_16 
REMARK    7  A    between atoms: C4_15  and  C5_20 
REMARK    8  A    between atoms: C13_16  and  C14_17 
ROOT
HETATM    1  C2  BES A1014     106.536  17.723  21.874  1.00 17.26     0.269 C 
HETATM    2  O2  BES A1014     105.726  17.033  20.927  1.00 19.20    -0.211 OA
ENDROOT
BRANCH   1   3
HETATM    3  C1  BES A1014     107.006  16.773  22.957  1.00 17.41     0.345 C 
HETATM    4  N2  BES A1014     107.700  15.645  22.415  1.00 17.22     0.620 N 
BRANCH   3   5
HETATM    5  C6  BES A1014     105.831  16.287  23.809  1.00 16.92     0.069 C 
BRANCH   5   6
HETATM    6  C7  BES A1014     106.243  15.445  25.035  1.00 18.23    -0.020 A 
HETATM    7  C8  BES A1014     106.993  16.025  26.075  1.00 18.23    -0.004 A 
HETATM    8  C9  BES A1014     107.381  15.263  27.178  1.00 17.98    -0.000 A 
HETATM    9  C10 BES A1014     107.012  13.917  27.218  1.00 18.88    -0.000 A 
HETATM   10  C11 BES A1014     106.250  13.332  26.201  1.00 18.98    -0.000 A 
HETATM   11  C12 BES A1014     105.879  14.101  25.095  1.00 19.07    -0.004 A 
ENDBRANCH   5   6
ENDBRANCH   3   5
ENDBRANCH   1   3
BRANCH   1  12
HETATM   12  C3  BES A1014     107.691  18.356  21.092  1.00 16.36     0.285 C 
HETATM   13  O3  BES A1014     108.750  18.650  21.617  1.00 16.18    -0.268 OA
HETATM   14  N1  BES A1014     107.499  18.612  19.689  1.00 15.20    -0.227 NA
BRANCH  14  15
HETATM   15  C4  BES A1014     108.546  19.213  18.853  1.00 14.51     0.193 C 
BRANCH  15  16
HETATM   16  C13 BES A1014     108.108  19.215  17.410  1.00 15.48     0.035 C 
BRANCH  16  17
HETATM   17  C14 BES A1014     107.184  20.334  16.924  1.00 16.69     0.003 C 
HETATM   18  C15 BES A1014     107.110  20.377  15.386  1.00 19.14     0.000 C 
HETATM   19  C16 BES A1014     105.798  20.264  17.522  1.00 16.19     0.000 C 
ENDBRANCH  16  17
ENDBRANCH  15  16
BRANCH  15  20
HETATM   20  C5  BES A1014     108.846  20.636  19.295  1.00 13.20     0.209 C 
HETATM   21  O1  BES A1014     108.082  21.284  20.073  1.00 12.62    -0.646 OA
HETATM   22  O4  BES A1014     109.850  21.205  18.844  1.00 12.78    -0.646 OA
ENDBRANCH  15  20
ENDBRANCH  14  15
ENDBRANCH   1  12
TORSDOF 8
